ACCESS-CCM
CCSM4
CCSRNIES-MIROC3.2
CESM-Superfast
CICERO-OsloCTM3
CMAM
CNRM-CCM
EMAC
GEOS-CCM
GEOS-Chem
GFDL-AM3
GISS-E2-R
HadGEM3-ES
LMDZrepro
MIROC-ESM-CHEM
MOCAGE
MRI-ESM
NIWA-UKCA
SOCOL3
ULAQ-CCM
UMSLIMCAT
UMUKCA-UCAM
CESM1-WACCM
###################   Institutions (same order)
#    University of Melbourne, CAWCR, AAD, Australia, NIWA, NZ
#   NCAR, ESL, USA
#   NIES, Tsukuba, Japan
#   LLNL, USA
#   CICERO, Norway
#   EC (Environment Canada), Canada
#   Meteo-France; France
#   MESSy-Consortium, Germany
#   NASA/GSFC, USA
#   LAGEO, Institute of Atmospheric Physics, Beijing, China
#   UCAR/NOAA, GFDL, USA
#   NASA-GISS, USA
#   Hadley Centre, Met Office, UK
#   IPSL, France
#   NIES, Nagoya Univ., JAMSTEC, Japan
#   GAME/CNRM, Méteo France
#   MRI, Japan
#   NIWA, NZ
#   PMOD/WRC and IAC ETHZ, Switzerland
#   University of L’Aquila, Italy
#   University of Leeds, UK
#   University of Cambridge, UK
#   NCAR, USA

